data_stdin
_audit_creation_method 'critic2'
_cell_length_a        13.3071203232
_cell_length_b        13.3071203232
_cell_length_c        30.0000000000
_cell_angle_alpha        90.0000
_cell_angle_beta        90.0000
_cell_angle_gamma       120.0000
_cell_volume          4600.659099
_space_group_crystal_system triclinic
_space_group_IT_number 1
_space_group_name_H-M_alt 'P1'
_space_group_name_Hall 'P 1'
loop_
_space_group_symop_operation_xyz
  'x,y,z'
loop_
_atom_site_label
_atom_site_type_symbol
_atom_site_fract_x
_atom_site_fract_y
_atom_site_fract_z
Se     Se     0.06814125008335     0.12316178584753     0.96678539600878
Se     Se     0.07075570393809     0.38487283145143     0.95575611362093
Se     Se     0.06197204676051     0.62287429712045     0.96132805216721
Se     Se     0.06409864734807     0.86919756318127     0.96307148259652
Se     Se     0.31539941540582     0.11998485387483     0.96312159502117
Se     Se     0.32019276944344     0.37349227480826     0.96382281738155
Se     Se     0.31746067420059     0.62294934248949     0.96201260833876
Se     Se     0.31275649286181     0.86794393703737     0.96210397851529
Se     Se     0.56297478578441     0.12019821991621     0.96319226667906
Se     Se     0.56436842860220     0.36981673420144     0.96279702912425
Se     Se     0.56612148599781     0.62125469547006     0.96221933360986
Se     Se     0.56352225703286     0.87000797164952     0.96367662876183
Se     Se     0.81379786167097     0.12358205607697     0.96714779418434
Se     Se     0.81006049952410     0.37347220015968     0.96294576890861
Se     Se     0.81256458895356     0.62055987030587     0.96127991633850
Se     Se     0.81351415169844     0.86899125353659     0.96437108483134
Se     Se     0.19686442605412     0.11702940559911     0.06803159369395
Se     Se     0.19666830545287     0.37252003447224     0.06825952074901
Se     Se     0.19260584430184     0.62951496403641     0.06515839488601
Se     Se     0.19326462101333     0.87202596002407     0.06713349090914
Se     Se     0.44443020244207     0.12429696531034     0.07094423791796
Se     Se     0.44721329643770     0.37472709830334     0.07116318383972
Se     Se     0.44439363063728     0.62252814559468     0.06953512693054
Se     Se     0.44120356856270     0.87094141820054     0.06976119978393
Se     Se     0.68691042664300     0.12082113582686     0.06993764075540
Se     Se     0.69654983426375     0.37774358954599     0.06792341894683
Se     Se     0.69891863494103     0.62780083093955     0.06822169527091
Se     Se     0.69115997453247     0.87263191134321     0.06868581042862
Se     Se     0.94112346161341     0.11684298540505     0.08062559479529
Se     Se     0.93844759845416     0.37676839168723     0.06325704545933
Se     Se     0.94365794938864     0.62589271617117     0.06552905023167
Se     Se     0.94424701277028     0.87030607136474     0.06845392385357
Se     Se     0.10751037194472     0.20774395937629     0.16936968255330
Se     Se     0.11008554320705     0.46267019007859     0.17423487940302
Se     Se     0.10735889270010     0.70255296289252     0.17577880878077
Se     Se     0.11231627522689     0.94871413418959     0.17800794087981
Se     Se     0.36539262108302     0.20292142757160     0.17496676677160
Se     Se     0.35705886720162     0.45578296070253     0.16589375318894
Se     Se     0.35799068605642     0.70660049027291     0.17484892253667
Se     Se     0.35736277975820     0.95195345809758     0.17750584108527
Se     Se     0.61402295836570     0.20863623221099     0.17384136759525
Se     Se     0.61750908404703     0.46190808223538     0.17603092623030
Se     Se     0.61207051010801     0.70717341435409     0.17629733445713
Se     Se     0.60235785191975     0.95207824975931     0.17786451236456
Se     Se     0.86113195335898     0.20826020867560     0.17200478279590
Se     Se     0.86379930573873     0.45970900869014     0.17400589872635
Se     Se     0.86275738389859     0.70806359641173     0.17546827435238
Se     Se     0.86436146208340     0.96245407735081     0.17246925724197
Se     Se     0.14564043305097     0.03871659357353     0.85876157784590
Se     Se     0.14668966388842     0.28738155239802     0.85913945807821
Se     Se     0.14495728476233     0.53237197334961     0.85895292698589
Se     Se     0.14683271009587     0.78899840207699     0.85674365267868
Se     Se     0.39643028632087     0.03591143506636     0.85711712486903
Se     Se     0.39586766642595     0.28506697834208     0.85760532928896
Se     Se     0.40422538290839     0.54058706444481     0.85523484130766
Se     Se     0.39841888840007     0.78851045726438     0.85698309162238
Se     Se     0.64980373552027     0.03834233200491     0.85887591127525
Se     Se     0.64606111676373     0.28443532416594     0.85734764449160
Se     Se     0.64614227105950     0.53790978835118     0.85558506598704
Se     Se     0.65016574679330     0.79227647222828     0.85770870500467
Se     Se     0.89722066790985     0.03802289800637     0.85870112529206
Se     Se     0.89763159828143     0.28695688322175     0.85885268653139
Se     Se     0.89281692230254     0.53963839074473     0.85436529520477
Se     Se     0.89811834438926     0.79222399914915     0.85723991505763
V      V      0.98002690893575     0.95563637139938     0.91251992550740
V      V      0.97756560775516     0.19725738018354     0.91292811781112
V      V      0.96457555288332     0.46029375338648     0.90906054235393
V      V      0.97932802489533     0.70684182558852     0.90920776227455
V      V      0.23063374571784     0.95470113268393     0.91055841117094
V      V      0.23054850257985     0.20591211291267     0.91159129864845
V      V      0.25250642025477     0.45978682267690     0.90970658835118
V      V      0.22880649983295     0.70076680829863     0.90834812648205
V      V      0.48119966478088     0.95452077315023     0.91078219657228
V      V      0.47946587133267     0.20113526256947     0.90996366584035
V      V      0.48499803947238     0.45313505750797     0.90967595703503
V      V      0.48423003462245     0.70681608417097     0.91002648404947
V      V      0.73313690896830     0.95617076390898     0.91284006406035
V      V      0.73330875792712     0.20502622192070     0.91151266423831
V      V      0.72443866229174     0.45317108860786     0.90875836333266
V      V      0.73139937548565     0.70637825570546     0.91026157150410
V      V      0.03990901679807     0.02181022990237     0.12209416075941
V      V      0.03015653487617     0.31347606129698     0.11842302571108
V      V      0.02508847207639     0.54552872755929     0.11921580897530
V      V      0.02551679954882     0.78024309613365     0.12183544921768
V      V      0.27325748689956     0.02662774317302     0.12216987609672
V      V      0.27857237411734     0.26957231593241     0.12337242769329
V      V      0.27082219837582     0.55580090785953     0.11932725022805
V      V      0.27058026765812     0.79132229773722     0.12120273501833
V      V      0.51239653688175     0.03026474570428     0.12212213905150
V      V      0.54498577991364     0.30306754135365     0.12221575844071
V      V      0.54488918567446     0.54855361383035     0.12187239097092
V      V      0.52696782703516     0.78379743046497     0.12214906654361
V      V      0.74858541579646     0.02744989634134     0.12247972688891
V      V      0.78063460629930     0.29227012064445     0.12058099858819
V      V      0.78846775892394     0.54757766271197     0.12163561615737
V      V      0.77897669016747     0.79532320995016     0.12242701252053
Cr     Cr     0.00953025412020     0.25044017650197     0.01854188498189
