data_stdin
_audit_creation_method 'critic2'
_cell_length_a        13.3071203232
_cell_length_b        13.3071203232
_cell_length_c        30.0000000000
_cell_angle_alpha        90.0000
_cell_angle_beta        90.0000
_cell_angle_gamma       120.0000
_cell_volume          4600.659099
_space_group_crystal_system triclinic
_space_group_IT_number 1
_space_group_name_H-M_alt 'P1'
_space_group_name_Hall 'P 1'
loop_
_space_group_symop_operation_xyz
  'x,y,z'
loop_
_atom_site_label
_atom_site_type_symbol
_atom_site_fract_x
_atom_site_fract_y
_atom_site_fract_z
Se     Se     0.05122713304283     0.09941438166749     0.96552251665813
Se     Se     0.05079624099405     0.34936539593037     0.96542447804607
Se     Se     0.05088802286012     0.59954222325465     0.96513507759803
Se     Se     0.05118808040254     0.84949441671633     0.96511816413308
Se     Se     0.30152480894061     0.09953257859839     0.96530685760472
Se     Se     0.30134415665828     0.34946259261275     0.96546060721244
Se     Se     0.30105658907679     0.59954771656065     0.96537398220978
Se     Se     0.30104307151480     0.84952214096911     0.96520289896410
Se     Se     0.55101406783863     0.09945628564090     0.96543441545299
Se     Se     0.55149678770625     0.34953886519593     0.96486048768307
Se     Se     0.55124172275994     0.59954011512829     0.96517058357703
Se     Se     0.55101271051510     0.84954164356364     0.96527863664964
Se     Se     0.80017428755784     0.09946196413432     0.96542936889425
Se     Se     0.80072674608957     0.34949795175828     0.96502232085477
Se     Se     0.80105666372011     0.59957715605763     0.96480596036565
Se     Se     0.80098433437163     0.84946452220122     0.96517522730206
Se     Se     0.21993952903099     0.13276218355410     0.07227413226038
Se     Se     0.21735979763096     0.42104961712403     0.07147940170519
Se     Se     0.20481824177744     0.65040418830924     0.07225178203305
Se     Se     0.20525337993442     0.88716694294188     0.07265575757807
Se     Se     0.46555273502126     0.14586650609567     0.07686280249718
Se     Se     0.47257229051964     0.40558868527051     0.07041868339589
Se     Se     0.46092607257670     0.64821824768631     0.07255996094846
Se     Se     0.45341487786339     0.88907979109616     0.07225692989767
Se     Se     0.70031837018178     0.14520871996094     0.07737076156263
Se     Se     0.71090749252251     0.40366526068524     0.07075922230786
Se     Se     0.70822258614521     0.64522429161878     0.07122733257479
Se     Se     0.69811629781877     0.88320436026846     0.07281968536013
Se     Se     0.92936563175811     0.12921134282031     0.07248818975766
Se     Se     0.95184741553329     0.40659329805661     0.07048697991916
Se     Se     0.95538597441989     0.64595983724223     0.07121254665099
Se     Se     0.94877513655124     0.87987038106415     0.07157148199806
Se     Se     0.12378728187045     0.22993875919394     0.16197703885822
Se     Se     0.12642579251851     0.48740000304601     0.17814211095132
Se     Se     0.12404637455419     0.73065571228823     0.18202677265925
Se     Se     0.12618712425402     0.97703045340902     0.17746040099065
Se     Se     0.37942502902447     0.22884959043955     0.17533410351492
Se     Se     0.37695814280328     0.48572387938622     0.17705610185841
Se     Se     0.37493391537471     0.73214792041003     0.18304999271191
Se     Se     0.37408787608397     0.97423927110335     0.18338854305684
Se     Se     0.62467823181723     0.22988202004588     0.17625162064363
Se     Se     0.62886414633076     0.48574629284187     0.18162878960564
Se     Se     0.62387428247782     0.72934433548114     0.18187103126223
Se     Se     0.61759495360984     0.97306468467959     0.18355831060114
Se     Se     0.86725392818299     0.22758474488321     0.17441641895085
Se     Se     0.87542027344783     0.48621152540679     0.18174177196234
Se     Se     0.87449860243109     0.72954109899844     0.18205666082553
Se     Se     0.86728593899159     0.97421881336819     0.17842988771144
Se     Se     0.13401696836781     0.01618008440274     0.85980379274061
Se     Se     0.13370264792910     0.26589150715808     0.85995958980446
Se     Se     0.13403618650322     0.51585084510308     0.85979146860691
Se     Se     0.13414896882064     0.76607651581480     0.85967979227184
Se     Se     0.38393851647962     0.01600680358998     0.85961735599903
Se     Se     0.38388529980119     0.26599870145927     0.85974137224879
Se     Se     0.38381642243410     0.51602832145256     0.85979770954940
Se     Se     0.38401660895969     0.76610295084693     0.85980200311903
Se     Se     0.63376807704393     0.01599240466001     0.85967396204610
Se     Se     0.63386738559791     0.26601167839011     0.85956478205482
Se     Se     0.63358191648852     0.51603812840908     0.85950324676877
Se     Se     0.63386327730398     0.76616116767551     0.85973305656516
Se     Se     0.88402967188891     0.01615011244997     0.85981737823269
Se     Se     0.88387463117330     0.26582578886593     0.85980676109837
Se     Se     0.88413114607783     0.51601611698341     0.85949435650243
Se     Se     0.88398739427835     0.76638571328481     0.85957308943962
V      V      0.96741354637641     0.93251978688132     0.91281749403081
V      V      0.96701868691600     0.18226819646843     0.91299004043487
V      V      0.96734923424566     0.43250460027875     0.91270992322033
V      V      0.96740410813453     0.68252788764662     0.91246308033225
V      V      0.21762969009182     0.93286564874532     0.91267689440128
V      V      0.21770236027738     0.18249086356077     0.91286362094686
V      V      0.21748127729877     0.43245919178061     0.91293844170478
V      V      0.21740721992550     0.68246608910701     0.91275091361571
V      V      0.46760824220278     0.93288691611276     0.91275980114632
V      V      0.46750123887669     0.18220509153632     0.91257824809090
V      V      0.46740463765068     0.43261108576611     0.91268041993619
V      V      0.46736583849624     0.68247760810396     0.91280851517100
V      V      0.71753078377178     0.93284353366448     0.91277344020198
V      V      0.71698246511708     0.18229412390961     0.91266251342077
V      V      0.71767435545909     0.43281397066384     0.91235242095840
V      V      0.71738511999105     0.68254759802644     0.91252612357785
V      V      0.01962432761554     0.02403410532576     0.12619781993015
V      V      0.02551326658753     0.33713792390843     0.12612131281473
V      V      0.03832493108034     0.57525981788515     0.12657310772882
V      V      0.03534504893966     0.79864566409743     0.12708300428284
V      V      0.29996078699885     0.04139271322035     0.12516389629369
V      V      0.32874653060480     0.33376103271383     0.12569698346667
V      V      0.30194927428947     0.58958501300256     0.12540448434333
V      V      0.28904114059102     0.80865167244226     0.12705504539028
V      V      0.52898436140954     0.03832368712749     0.12703373953940
V      V      0.56045751707640     0.33414220426430     0.12664610235608
V      V      0.55440410956623     0.57474061976868     0.12658164724194
V      V      0.53451948200368     0.80715624448557     0.12701899573810
V      V      0.75915074869917     0.03628357796923     0.12544005231838
V      V      0.79249610899261     0.33541687029686     0.12652986131084
V      V      0.79406066765134     0.57032543164627     0.12702726015609
V      V      0.78273540565937     0.79686623961486     0.12746707970970
Cr     Cr     0.12219831805397     0.22816544064722     0.08439527691676
