data_stdin
_audit_creation_method 'critic2'
_cell_length_a        13.3071203232
_cell_length_b        13.3071203232
_cell_length_c        30.0000000000
_cell_angle_alpha        90.0000
_cell_angle_beta        90.0000
_cell_angle_gamma       120.0000
_cell_volume          4600.659099
_space_group_crystal_system triclinic
_space_group_IT_number 1
_space_group_name_H-M_alt 'P1'
_space_group_name_Hall 'P 1'
loop_
_space_group_symop_operation_xyz
  'x,y,z'
loop_
_atom_site_label
_atom_site_type_symbol
_atom_site_fract_x
_atom_site_fract_y
_atom_site_fract_z
Se     Se     0.05355542497172     0.10430777914385     0.95772291546318
Se     Se     0.05366373721269     0.35495592135600     0.95730052154107
Se     Se     0.05399947412042     0.60505211486946     0.95692889883556
Se     Se     0.05362123920113     0.85488044608924     0.95734581900577
Se     Se     0.30361655917682     0.10433776388594     0.95775788815201
Se     Se     0.30399423288182     0.35521087354501     0.95738004103976
Se     Se     0.30409334232994     0.60521341560428     0.95698899782968
Se     Se     0.30374159747950     0.85482863720657     0.95736697294619
Se     Se     0.55380062143172     0.10484435561455     0.95749000198678
Se     Se     0.55388266397419     0.35504298762491     0.95722741479051
Se     Se     0.55411930066040     0.60524854988287     0.95698021495882
Se     Se     0.55397142070967     0.85499920735871     0.95695623352127
Se     Se     0.80371885287217     0.10487337936617     0.95746556759648
Se     Se     0.80383914710448     0.35499644153910     0.95680435030590
Se     Se     0.80401726725285     0.60509785543708     0.95690450700835
Se     Se     0.80373049186552     0.85494332047859     0.95726753104467
Se     Se     0.19813995483990     0.14123023582408     0.07885548128186
Se     Se     0.19714447742645     0.39640128540217     0.06545263171861
Se     Se     0.20058488919554     0.64180796340579     0.06207175414519
Se     Se     0.19582803954653     0.88328243201023     0.06642469106359
Se     Se     0.45628089911589     0.14326970084022     0.06895103661039
Se     Se     0.45417503375670     0.39623482546077     0.06532540581978
Se     Se     0.44913305713523     0.64281742688744     0.06139660557494
Se     Se     0.44815315499588     0.88480089843597     0.06184866516064
Se     Se     0.69944211218611     0.14245040087176     0.06766132763582
Se     Se     0.70475073773713     0.39970800996391     0.05979699125585
Se     Se     0.69715905850073     0.64176953921467     0.06191303494893
Se     Se     0.69319370026802     0.88482355850256     0.06180160231272
Se     Se     0.94300151012121     0.14357750249982     0.06877609813063
Se     Se     0.95100001406186     0.39986286212454     0.05995188288953
Se     Se     0.94719876192937     0.63880492147717     0.06082380276430
Se     Se     0.94434760609912     0.88454606188616     0.06628608119542
Se     Se     0.10404210632886     0.23955031194156     0.17073969416576
Se     Se     0.11903597055933     0.48641188120301     0.17100265937042
Se     Se     0.11766584886105     0.72225519710659     0.17116231026649
Se     Se     0.10432247415439     0.95185147205712     0.17174793713697
Se     Se     0.39144004254004     0.23900673905926     0.17061168930518
Se     Se     0.37326071744001     0.49010093505946     0.17255071420473
Se     Se     0.36859623301269     0.72557366753125     0.17308133234241
Se     Se     0.37168512510903     0.96588090182865     0.17325304800434
Se     Se     0.62378332531979     0.22699268487184     0.16538435294545
Se     Se     0.62324077883546     0.48607959256205     0.17100637883557
Se     Se     0.61325905211543     0.72493675527385     0.17295164341479
Se     Se     0.61191717276613     0.96776348576209     0.17308575746177
Se     Se     0.85813464543110     0.22657514129094     0.16566395465659
Se     Se     0.86929599859023     0.48300337940528     0.17071730228834
Se     Se     0.85981841034572     0.72197647410010     0.17162133317637
Se     Se     0.85017285114810     0.96565562341716     0.17332337071801
Se     Se     0.13724422574305     0.02124071971320     0.85190201049027
Se     Se     0.13686298032918     0.27090295663718     0.85187463143054
Se     Se     0.13734170792027     0.52146834027946     0.85163653729811
Se     Se     0.13732300010471     0.77151609367353     0.85166232821718
Se     Se     0.38725152642194     0.02161455596396     0.85177703154861
Se     Se     0.38693921951304     0.27094806107253     0.85188101531597
Se     Se     0.38692624293356     0.52090872318216     0.85171595630390
Se     Se     0.38731895101036     0.77158508939029     0.85167779681642
Se     Se     0.63686836289294     0.02085441794695     0.85175744693470
Se     Se     0.63674897077462     0.27079282521552     0.85180270399022
Se     Se     0.63727541899695     0.52149372436231     0.85165162942127
Se     Se     0.63733538615847     0.77161571159180     0.85166363449807
Se     Se     0.88733009277255     0.02166735202638     0.85177792014311
Se     Se     0.88694029611994     0.27074002843870     0.85178168298368
Se     Se     0.88732925953178     0.52123868232085     0.85163385896412
Se     Se     0.88732817522915     0.77151218918336     0.85165720573389
V      V      0.97047215041155     0.93806007307015     0.90473734399289
V      V      0.97058781866346     0.18768247082832     0.90493463626902
V      V      0.97059003818226     0.43762910203007     0.90455061683477
V      V      0.97070545525810     0.68823340314404     0.90459871537811
V      V      0.22054520730324     0.93797967454928     0.90480031370992
V      V      0.22040108448738     0.18780511387081     0.90498915463992
V      V      0.21985157670906     0.43736407248444     0.90473323393111
V      V      0.22054947321167     0.68817584989271     0.90463739342023
V      V      0.47031078435402     0.93829957574079     0.90476176321210
V      V      0.47002047795590     0.18759393602064     0.90493507746025
V      V      0.47040228190114     0.43753752363337     0.90470602790014
V      V      0.47031246578299     0.68761392730686     0.90452878839624
V      V      0.72102352280466     0.93842096455707     0.90472172835400
V      V      0.72007122993995     0.18720897728214     0.90476560910223
V      V      0.72027513139779     0.43768585825199     0.90456388362031
V      V      0.72067576533787     0.68817887060714     0.90459201613271
V      V      0.99304869862838     0.03611346108915     0.11723200754631
V      V      0.02612824512821     0.33408946064909     0.11791207170807
V      V      0.03545383165141     0.56397958979183     0.11621163792664
V      V      0.01662993853306     0.78016514634558     0.11819981907834
V      V      0.29819280274732     0.03536819065429     0.11710818854196
V      V      0.30155845937339     0.34785026537706     0.11675570813393
V      V      0.29269148396440     0.57397199112345     0.11634046625323
V      V      0.28678129751228     0.79617426216983     0.11707455024217
V      V      0.52987284960073     0.03541193329863     0.11670671053501
V      V      0.56367544756679     0.33458153268711     0.11755121122145
V      V      0.53774480307384     0.57358504923081     0.11619103460927
V      V      0.52901714511542     0.80072954506055     0.11656749621861
V      V      0.76166544263948     0.03531707855264     0.11673231852721
V      V      0.79585301400284     0.33589023347329     0.11543697556419
V      V      0.78415080229345     0.56395345976618     0.11616746546374
V      V      0.76637297634344     0.79603455898790     0.11696248286399
Cr     Cr     0.19963827991980     0.14338046116847     0.15622932273092
