data_stdin
_audit_creation_method 'critic2'
_cell_length_a        13.3071203232
_cell_length_b        13.3071203232
_cell_length_c        30.0000000000
_cell_angle_alpha        90.0000
_cell_angle_beta        90.0000
_cell_angle_gamma       120.0000
_cell_volume          4600.659099
_space_group_crystal_system monoclinic
_space_group_IT_number 5
_space_group_name_H-M_alt 'C2'
_space_group_name_Hall 'C 2y'
loop_
_space_group_symop_operation_xyz
  'x,y,z'
  'x-y,-y,-z'
loop_
_atom_site_label
_atom_site_type_symbol
_atom_site_fract_x
_atom_site_fract_y
_atom_site_fract_z
Se     Se     0.08868791043128     0.17559894762577     0.94916272890574
Se     Se     0.08333574364281     0.41865163693703     0.95000205324710
Se     Se     0.08326570822843     0.66380243956630     0.95000134838970
Se     Se     0.08844937433697     0.91242204876779     0.94894778778583
Se     Se     0.34332543363584     0.17125419889387     0.95211492098497
Se     Se     0.33705701891996     0.41871476707847     0.94999997297376
Se     Se     0.33408670137656     0.66664972034086     0.94761322633082
Se     Se     0.33706040626397     0.91752670830142     0.94998458531967
Se     Se     0.58455243996034     0.16750732630636     0.94913802331298
Se     Se     0.58452043735819     0.41619287189038     0.94914696975879
Se     Se     0.58199936409411     0.66372435219533     0.95004306711137
Se     Se     0.58200351716963     0.91740641942818     0.95004259519468
Se     Se     0.82948223791985     0.17122069574754     0.95212802579078
Se     Se     0.83321582899850     0.41617545404151     0.94905860723040
Se     Se     0.82946756370063     0.65741593587256     0.95213564389485
Se     Se     0.82438328078839     0.91173563003561     0.94955776756391
Se     Se     0.08378529690286     0.16626097704295     0.15224717973484
Se     Se     0.08567922660643     0.41984210052656     0.15754963588434
Se     Se     0.08583764511896     0.66490689989319     0.15759550548940
Se     Se     0.08372359352341     0.91707561329802     0.15201830022271
Se     Se     0.32616089616392     0.16269111634783     0.15214970994851
Se     Se     0.33581825434477     0.42004459262278     0.15752575916311
Se     Se     0.33421380303358     0.66671533018419     0.15889912601957
Se     Se     0.33596546213907     0.91498016246669     0.15759870815628
Se     Se     0.58528297520747     0.16892839453206     0.15627815369796
Se     Se     0.58532643325201     0.41552088173484     0.15628827613414
Se     Se     0.58096090777022     0.66511806715029     0.15751103807787
Se     Se     0.58112423200711     0.91521287042784     0.15753259906801
Se     Se     0.83800304300524     0.16289592117914     0.15222950453460
Se     Se     0.83189601631282     0.41554572986899     0.15631434101144
Se     Se     0.83811026944736     0.67454805887250     0.15216446045951
Se     Se     0.83441258991036     0.91694502562727     0.15237771140483
V      V      0.99891403764366     0.99964390847071     0.90367977779485
V      V      0.98488230694569     0.25441269756356     0.89775477010008
V      V      0.00672749704543     0.50278115350364     0.89606457971723
V      V      0.98469329674785     0.72927073693421     0.89772959231684
V      V      0.27182548144447     0.01607896561455     0.89766269090032
V      V      0.27162370483450     0.25484286011081     0.89763976326155
V      V      0.24818605098339     0.49442651491162     0.89687073867998
V      V      0.24796396626400     0.75289891552996     0.89685926610247
V      V      0.49829935755221     0.99418027049695     0.89607440531658
V      V      0.50992765195389     0.25454825377552     0.89685093501669
V      V      0.49810032513845     0.50309724895916     0.89607408562509
V      V      0.50641742212775     0.75269978638376     0.89686698306935
V      V      0.74634132910921     0.01559573717621     0.89777434925690
V      V      0.74600111929391     0.25435993514802     0.89687374877019
V      V      0.74595318336988     0.49077206048013     0.89686201477133
V      V      0.74619035414097     0.72971510934079     0.89772123441972
Cr     Cr     0.00107267587099     0.00000000000000     0.00000000000000
