data_stdin
_audit_creation_method 'critic2'
_cell_length_a        13.3071203232
_cell_length_b        13.3071203232
_cell_length_c        30.0000000000
_cell_angle_alpha        90.0000
_cell_angle_beta        90.0000
_cell_angle_gamma       120.0000
_cell_volume          4600.659099
_space_group_crystal_system triclinic
_space_group_IT_number 1
_space_group_name_H-M_alt 'P1'
_space_group_name_Hall 'P 1'
loop_
_space_group_symop_operation_xyz
  'x,y,z'
loop_
_atom_site_label
_atom_site_type_symbol
_atom_site_fract_x
_atom_site_fract_y
_atom_site_fract_z
Se     Se     0.07752634365817     0.15488181034939     0.95219694380392
Se     Se     0.07741530324463     0.40564638020348     0.95133991503977
Se     Se     0.07794067619363     0.65462275135353     0.95046777519971
Se     Se     0.07856350285494     0.90427888914799     0.95126860866475
Se     Se     0.32854185667909     0.15442739756830     0.95137416779159
Se     Se     0.32751267813855     0.40566341185509     0.95170436513120
Se     Se     0.32765700321375     0.65614530465920     0.95114119441827
Se     Se     0.32807705298454     0.90484396086237     0.95059045522571
Se     Se     0.57809647603796     0.15459880315271     0.95030677457834
Se     Se     0.57908507902560     0.40462352235526     0.95018098025109
Se     Se     0.57831761349334     0.65577274634035     0.95125487578012
Se     Se     0.57815303965109     0.90643130301516     0.95109037977483
Se     Se     0.82739828376751     0.15562234966140     0.95133641132851
Se     Se     0.82765759240344     0.40448875477366     0.94971062867347
Se     Se     0.82820892416095     0.65380438275301     0.95031209591182
Se     Se     0.82842971798853     0.90599371566025     0.95149888495174
Se     Se     0.17689485796831     0.08800897160228     0.06207910752628
Se     Se     0.17353242862049     0.34359100256353     0.06442402685473
Se     Se     0.17526668748588     0.58979712124821     0.05757879297361
Se     Se     0.17817324129894     0.83972352494138     0.05475285866220
Se     Se     0.43081467350197     0.08770771212046     0.05396521716439
Se     Se     0.43574082324302     0.34538744279787     0.05345745892140
Se     Se     0.42402634550404     0.59276886511727     0.05415052083915
Se     Se     0.42348399063792     0.83823386316595     0.05471262715149
Se     Se     0.67851948268241     0.09231198219950     0.06007151048073
Se     Se     0.67658568080202     0.34168041041642     0.05397969329038
Se     Se     0.67107770041219     0.58811817100012     0.05195212478446
Se     Se     0.66798452236617     0.83572860983644     0.05361904941331
Se     Se     0.91952534919146     0.09178966162882     0.06287338257021
Se     Se     0.92487746658536     0.34715616006997     0.05846828007298
Se     Se     0.92569459917775     0.59103534089699     0.05553812192013
Se     Se     0.91519175099383     0.82554382840264     0.05216346541309
Se     Se     0.07306075619261     0.19098715299087     0.18131510177853
Se     Se     0.09972416952021     0.44485210623277     0.16616610905265
Se     Se     0.09255024167380     0.68092786124514     0.16402139322160
Se     Se     0.09209367828381     0.92579563786367     0.15877099046451
Se     Se     0.34756721269573     0.17321716910727     0.16186804802100
Se     Se     0.34965285839185     0.43086254819787     0.16320730907953
Se     Se     0.34505777074784     0.67954493758381     0.16504268753945
Se     Se     0.34359104812202     0.92300347862810     0.16390205509624
Se     Se     0.59097993580781     0.17323153704808     0.16233125433676
Se     Se     0.58885494007391     0.42436042573937     0.15907048115724
Se     Se     0.58974995639888     0.67380473904000     0.16314838706568
Se     Se     0.58672902622996     0.91837534289486     0.16478167302709
Se     Se     0.82316473563338     0.16924408440292     0.16354889071249
Se     Se     0.83902870030558     0.43316756381710     0.16310999126216
Se     Se     0.83949174217665     0.67465909678792     0.15907052985820
Se     Se     0.83071160903321     0.91177510266944     0.16367174665469
Se     Se     0.16125792383636     0.07252467442572     0.84607349666483
Se     Se     0.16172396642355     0.32162288595167     0.84628666297126
Se     Se     0.16150023820125     0.57109524506887     0.84480597532072
Se     Se     0.16073551662432     0.82142925354533     0.84473774114975
Se     Se     0.41069953080044     0.07144385233786     0.84473043406303
Se     Se     0.40997821768086     0.32203517181855     0.84601874264802
Se     Se     0.41140678470492     0.57211997426335     0.84605693491675
Se     Se     0.41124939181107     0.82109871113173     0.84494811757336
Se     Se     0.66114159198525     0.07072429014383     0.84477783135261
Se     Se     0.66053303613944     0.32108642015541     0.84448823557293
Se     Se     0.66050191718605     0.57243335002549     0.84563694203046
Se     Se     0.66173934510861     0.82235975582495     0.84593357378372
Se     Se     0.91216246561672     0.07190938898805     0.84609882044976
Se     Se     0.91166757879418     0.32047461798000     0.84511171815877
Se     Se     0.91111897071992     0.57157058268444     0.84448801458698
Se     Se     0.91124252360643     0.82267091647420     0.84585142675950
V      V      0.99561418935862     0.98868910313956     0.89932918679944
V      V      0.99460937219229     0.23828459522305     0.89911707550552
V      V      0.99471902295117     0.48786284125030     0.89772103034066
V      V      0.99498161144882     0.73827535898859     0.89811208489847
V      V      0.24469256441767     0.98787706561597     0.89836439202037
V      V      0.24415089666946     0.23797963449486     0.89964739658522
V      V      0.24408520689356     0.48902456693843     0.89887654319999
V      V      0.24436345985521     0.73831841896673     0.89789884015050
V      V      0.49384871992546     0.98814075001608     0.89790648144632
V      V      0.49392703772146     0.23758424392227     0.89808500054874
V      V      0.49431799468445     0.48849561776513     0.89910410453103
V      V      0.49438096064468     0.73911019275367     0.89888533914010
V      V      0.74470384104717     0.98909985370776     0.89873648073794
V      V      0.74411848054217     0.23725234305315     0.89764157545071
V      V      0.74475055485688     0.48772821234422     0.89734838202763
V      V      0.74527388276704     0.73910852121655     0.89903137680311
V      V      0.97573521250002     0.96699670676230     0.10752444367982
V      V      0.99129302393615     0.28039929892901     0.11990565431057
V      V      0.00933441015207     0.51814940318979     0.11051107499208
V      V      0.01543562784380     0.75352715516810     0.10737011728066
V      V      0.27366365790017     0.00098600360845     0.10761860021878
V      V      0.29603369246235     0.27758610513460     0.10908713832246
V      V      0.27554989593624     0.52681182646182     0.11049320545792
V      V      0.25898910286529     0.75652510081267     0.10906128255734
V      V      0.50707609533576     0.99699746039012     0.10838313762858
V      V      0.51454720727851     0.24854070848479     0.10752612839616
V      V      0.51512359803681     0.52326900237268     0.10754792350636
V      V      0.50402305818673     0.75814904756668     0.10842224433876
V      V      0.73758406828091     0.98286432314729     0.10933256198658
V      V      0.75896492782692     0.27586135406859     0.11064645784369
V      V      0.74867520389941     0.51014876879887     0.10797786809390
V      V      0.74252717517901     0.74439626357326     0.10700584874799
Cr     Cr     0.09063029664608     0.17112412533490     0.11021120671884
