data_stdin
_audit_creation_method 'critic2'
_cell_length_a        13.3071203232
_cell_length_b        13.3071203232
_cell_length_c        30.0000000000
_cell_angle_alpha        90.0000
_cell_angle_beta        90.0000
_cell_angle_gamma       120.0000
_cell_volume          4600.659099
_space_group_crystal_system triclinic
_space_group_IT_number 1
_space_group_name_H-M_alt 'P1'
_space_group_name_Hall 'P 1'
loop_
_space_group_symop_operation_xyz
  'x,y,z'
loop_
_atom_site_label
_atom_site_type_symbol
_atom_site_fract_x
_atom_site_fract_y
_atom_site_fract_z
Se     Se     0.07213770858338     0.13810505704469     0.95484289298123
Se     Se     0.07532488690702     0.39067062711039     0.95096596366255
Se     Se     0.07264794714165     0.63991545108908     0.95314114489139
Se     Se     0.07197162165789     0.88818823128771     0.95453548116685
Se     Se     0.32173128420261     0.13784298068768     0.95516756276421
Se     Se     0.32653264351311     0.39086032586555     0.95491423011752
Se     Se     0.32673058339510     0.64280536184750     0.95457924283828
Se     Se     0.32260227540335     0.88984873740112     0.95443002848683
Se     Se     0.57106786349179     0.13844693694874     0.95571325514064
Se     Se     0.57189004120787     0.38907201189483     0.95498558917132
Se     Se     0.57380524329012     0.64034096225809     0.95437407877845
Se     Se     0.57237044856550     0.88950701337709     0.95518734425093
Se     Se     0.81935280187741     0.13650483226262     0.95564925374555
Se     Se     0.81911252815639     0.38821363559266     0.95429657938696
Se     Se     0.82061461750474     0.63903830006393     0.95411665990932
Se     Se     0.82192359270385     0.88800507433227     0.95493116317916
Se     Se     0.17841341777184     0.10791500846294     0.07632185612854
Se     Se     0.17841996357654     0.36379971525874     0.06135545024186
Se     Se     0.18087958342739     0.60869551746603     0.05808345300127
Se     Se     0.17680097259233     0.85120478176113     0.06233178935464
Se     Se     0.43572041605308     0.11015401862941     0.06593267943585
Se     Se     0.43290255449904     0.36149208951979     0.06345377434702
Se     Se     0.42823530564264     0.60859183254803     0.05809244033112
Se     Se     0.42693647040847     0.85077130788462     0.05801561790880
Se     Se     0.67910483556783     0.10782749548391     0.06384287252128
Se     Se     0.68475363958082     0.36510536604630     0.05670226704324
Se     Se     0.67639454238679     0.60687271995546     0.05904855807582
Se     Se     0.67268227425215     0.85075603209409     0.05823365434587
Se     Se     0.92380181669882     0.10931013175235     0.06578655565621
Se     Se     0.93175259511162     0.36585596961159     0.05612378433548
Se     Se     0.92886872593175     0.60522236477936     0.05705038864128
Se     Se     0.92394364538815     0.84932963441423     0.06316669721443
Se     Se     0.08501112920713     0.20708948827814     0.16775905860804
Se     Se     0.09929538146614     0.45305318145630     0.16806545536410
Se     Se     0.09868627905064     0.68773601417747     0.16836520127035
Se     Se     0.08379055277371     0.91757036698725     0.16842682891810
Se     Se     0.37224889145949     0.20688401860278     0.16807759283960
Se     Se     0.35242962608724     0.45798345942432     0.16963151457399
Se     Se     0.34850993366721     0.69298075304095     0.16962082256552
Se     Se     0.35253557566428     0.93269392942776     0.16990290748924
Se     Se     0.60485782595075     0.19281557293172     0.16199586913412
Se     Se     0.60500288887145     0.45354053239023     0.16733958096634
Se     Se     0.59291203479164     0.69229530218129     0.16953356682246
Se     Se     0.59207855694500     0.93425737863474     0.16937558225757
Se     Se     0.83939128724997     0.19277260207424     0.16153833961842
Se     Se     0.85133406400233     0.44882919049936     0.16718909409157
Se     Se     0.84175111599096     0.68826834458637     0.16703643074154
Se     Se     0.82988831884924     0.93146953728328     0.17002028694484
Se     Se     0.15530251940391     0.05583381527791     0.84901682973106
Se     Se     0.15592525309800     0.30725185678571     0.85191762143621
Se     Se     0.15649510180708     0.55400714480618     0.85105517052281
Se     Se     0.15535930418908     0.80445993336370     0.84916025326633
Se     Se     0.40548767820465     0.05551170097890     0.84859704670918
Se     Se     0.40665066176208     0.30548348358586     0.84911900902611
Se     Se     0.41174831648563     0.55908441680007     0.84768672249937
Se     Se     0.40812894248107     0.80728575909150     0.84870940942064
Se     Se     0.65540365671831     0.05484002407127     0.84885769239812
Se     Se     0.65515798452162     0.30424415623945     0.84888276676128
Se     Se     0.65629623948349     0.55598738002936     0.84741552898171
Se     Se     0.65698931671397     0.80699094884669     0.84742793302755
Se     Se     0.90475538577073     0.05405679138552     0.84880672626657
Se     Se     0.90452575103961     0.30407471155830     0.85003832957008
Se     Se     0.90458990454109     0.55518569146922     0.84850744097030
Se     Se     0.90509802583207     0.80553022876963     0.84822213788335
V      V      0.98693305870787     0.96939997512462     0.90215861231810
V      V      0.97899046365004     0.21179958490914     0.90319205944890
V      V      0.98019312485588     0.47093949623199     0.90275839332246
V      V      0.98479210549490     0.72256544843204     0.90169274032745
V      V      0.23847293846289     0.97220265718033     0.90156140585777
V      V      0.24155449137227     0.22151205555225     0.90202252358220
V      V      0.25801549467873     0.48210281205079     0.90216746681146
V      V      0.24441555023598     0.72610605284020     0.90133592708941
V      V      0.48978041651453     0.97507843916933     0.90187366437944
V      V      0.48918803054051     0.22069358780359     0.90201694512009
V      V      0.49499401672836     0.47339207811159     0.90166023166761
V      V      0.49669547993580     0.72770403645651     0.90189803954960
V      V      0.73546091086102     0.96734115578732     0.90231617994063
V      V      0.73366597622493     0.21812841203111     0.90239123805320
V      V      0.73419055137137     0.47251252774219     0.90150698468786
V      V      0.73785869181060     0.72309704779535     0.90171272460188
V      V      0.97308840021601     0.00073782077155     0.11393247680331
V      V      0.00988443976129     0.30208904155967     0.11402231848810
V      V      0.01703569657229     0.53013641929273     0.11243394469719
V      V      0.00343604932957     0.74699972558148     0.11445388001117
V      V      0.27783731854608     0.00173094552965     0.11424877983879
V      V      0.27846149026023     0.31460385871243     0.11429866086146
V      V      0.26959680066151     0.54073865843306     0.11300132078465
V      V      0.26453227826804     0.76267528965251     0.11344184075492
V      V      0.50988826524445     0.00168620656152     0.11284607384557
V      V      0.54503235966638     0.30089180556943     0.11484721147164
V      V      0.51568005016513     0.54045262255783     0.11300572661124
V      V      0.50639526967039     0.76726262282710     0.11283064084991
V      V      0.74170204643590     0.00102905739086     0.11310368179909
V      V      0.77754399560169     0.30159962353854     0.11167663576867
V      V      0.76774456432313     0.53012991064509     0.11249335308586
V      V      0.74491641954580     0.76224932970598     0.11351787403374
Cr     Cr     0.18058680594046     0.11007445466253     0.15378685834601
