data_stdin
_audit_creation_method 'critic2'
_cell_length_a        13.3071203232
_cell_length_b        13.3071203232
_cell_length_c        30.0000000000
_cell_angle_alpha        90.0000
_cell_angle_beta        90.0000
_cell_angle_gamma       120.0000
_cell_volume          4600.659099
_space_group_crystal_system triclinic
_space_group_IT_number 1
_space_group_name_H-M_alt 'P1'
_space_group_name_Hall 'P 1'
loop_
_space_group_symop_operation_xyz
  'x,y,z'
loop_
_atom_site_label
_atom_site_type_symbol
_atom_site_fract_x
_atom_site_fract_y
_atom_site_fract_z
Se     Se     0.08377638692151     0.16950910778283     0.95111862080168
Se     Se     0.08420326987734     0.41982424981385     0.95090523480167
Se     Se     0.08412573385626     0.66980209034007     0.95090677524282
Se     Se     0.08366463714280     0.92005481810359     0.95127313476266
Se     Se     0.33326139542235     0.16947670609773     0.95127964457451
Se     Se     0.33391932222753     0.41965602563050     0.95107652866730
Se     Se     0.33415448925150     0.66987383275354     0.95089348126446
Se     Se     0.33399189156822     0.91973196458124     0.95107295025170
Se     Se     0.58403492590611     0.17032508696937     0.95048711372067
Se     Se     0.58389281685441     0.42032371208119     0.95041899649995
Se     Se     0.58396668049180     0.67049535151618     0.95033075456185
Se     Se     0.58407937944123     0.92036588158048     0.95045033346388
Se     Se     0.83358421443720     0.17003715956520     0.95039219712901
Se     Se     0.83385853684192     0.42022341579012     0.94996160773539
Se     Se     0.83368754728884     0.67007888631867     0.95044155480694
Se     Se     0.83377821301842     0.91987759682437     0.95077644828977
Se     Se     0.16732364879635     0.07902556182796     0.06931484970307
Se     Se     0.16625214010284     0.33368461880571     0.05864316466970
Se     Se     0.16657089763026     0.57774816705520     0.05653058066942
Se     Se     0.16496856757596     0.82179193270274     0.05756144087585
Se     Se     0.42294072061617     0.08158733561897     0.05637853351008
Se     Se     0.42359113274911     0.33314603556772     0.05629194111545
Se     Se     0.42393154888138     0.58464444235713     0.05197495964113
Se     Se     0.42288841514385     0.83078843800887     0.05199972609921
Se     Se     0.66659988978413     0.07795213891790     0.05194973071361
Se     Se     0.66927838359069     0.33076439592318     0.05050934680393
Se     Se     0.66601704888298     0.57938371099256     0.05159378613854
Se     Se     0.66589752872494     0.82820686527458     0.05153008624072
Se     Se     0.91240008209823     0.08017468582379     0.05535450429985
Se     Se     0.90980098480239     0.32739033138374     0.04979278081088
Se     Se     0.91060477407558     0.57415414630137     0.04999308608027
Se     Se     0.91326042885437     0.82351458813819     0.05565946924054
Se     Se     0.06865674697013     0.17362209598728     0.16118321345359
Se     Se     0.08201524003061     0.41877383831463     0.15553991230643
Se     Se     0.08195328437880     0.65240960568579     0.15639987522194
Se     Se     0.07032289065286     0.88619152050987     0.16124743793656
Se     Se     0.35684166054448     0.17384812155019     0.16195441919523
Se     Se     0.34252976023690     0.42765076904159     0.16340851820131
Se     Se     0.33994357552200     0.66601192706665     0.16235200548667
Se     Se     0.34200915974634     0.90521963203693     0.16274099644468
Se     Se     0.58674088281640     0.16077009206161     0.16100740057504
Se     Se     0.58708872927489     0.41728157076044     0.16118439993001
Se     Se     0.58306625313728     0.66380209421545     0.16245106899442
Se     Se     0.58333823195772     0.91004938969152     0.16246410699392
Se     Se     0.82205770852228     0.15952072283005     0.16027831103403
Se     Se     0.82682431862984     0.40964116018677     0.16036607000287
Se     Se     0.82363916373047     0.65548052388190     0.16059165124613
Se     Se     0.81786255585569     0.90439603398664     0.16195710411627
Se     Se     0.16690967893987     0.08614555138983     0.84544674760964
Se     Se     0.16690075689301     0.33617764694766     0.84538712294402
Se     Se     0.16744410905025     0.58639566852007     0.84525430166026
Se     Se     0.16686659327881     0.83619734379210     0.84542868814624
Se     Se     0.41647005297552     0.08638240086422     0.84531063667332
Se     Se     0.41656313717280     0.33623519323996     0.84530523673597
Se     Se     0.41650205442780     0.58632070775675     0.84525203516517
Se     Se     0.41646144415131     0.83642391321756     0.84529524651966
Se     Se     0.66691327741620     0.08622741809979     0.84505754670511
Se     Se     0.66668439948439     0.33620550266266     0.84508799161637
Se     Se     0.66691265315082     0.58632198349165     0.84505361301678
Se     Se     0.66697200407237     0.83631508075615     0.84504992419384
Se     Se     0.91754450039523     0.08649970661418     0.84516641931320
Se     Se     0.91762397259987     0.33642833758678     0.84511370944389
Se     Se     0.91757352813969     0.58655303379039     0.84516378042335
Se     Se     0.91755544919127     0.83651399636555     0.84516546044575
V      V      0.00002618295165     0.00273248704073     0.89834329003802
V      V      0.00049523853383     0.25265918808026     0.89843129691323
V      V      0.00100817394311     0.50311433120831     0.89826402312960
V      V      0.00061865655327     0.75330898944604     0.89849636073083
V      V      0.25024347020490     0.00271305387117     0.89853605365656
V      V      0.25029357533211     0.25286210512772     0.89844713097416
V      V      0.25041546757698     0.50265371742125     0.89854124796328
V      V      0.25023350609979     0.75299076506456     0.89854535174023
V      V      0.50018746999379     0.00322450778124     0.89826842937465
V      V      0.49971196836139     0.25280208449814     0.89836390335446
V      V      0.50010294258803     0.50294136263508     0.89824458165750
V      V      0.50033033725385     0.75313172851622     0.89821188588398
V      V      0.75081912463013     0.00327586090359     0.89810876454320
V      V      0.75057245281710     0.25327806269764     0.89796386788177
V      V      0.75058469457731     0.50317945882732     0.89799139650031
V      V      0.75082646586511     0.75322220584032     0.89804493398719
V      V      0.96147419623593     0.97640416964849     0.10679383559424
V      V      0.97502995304227     0.25117195941157     0.10757278230233
V      V      0.97518776941044     0.48315934906974     0.10517446273415
V      V      0.97917353314107     0.71550508777969     0.10792605722971
V      V      0.27050344680300     0.97731292400757     0.10722958413606
V      V      0.27254772460167     0.28402885582059     0.10768682071534
V      V      0.27220634889637     0.51556479801995     0.10630102282686
V      V      0.26929105206796     0.74557833687559     0.10580206401394
V      V      0.51200123016941     0.99340601885637     0.10671394251439
V      V      0.52715626893174     0.25946136964798     0.10782779169496
V      V      0.51056128485359     0.50927862704676     0.10692241147652
V      V      0.50639883516591     0.74992746664381     0.10617527631169
V      V      0.73454228763473     0.98606112881639     0.10568102963207
V      V      0.74508466663160     0.24590683464160     0.10570715094899
V      V      0.74521561591879     0.49471706189527     0.10574368762735
V      V      0.73519104782825     0.73678565291493     0.10601807176299
Cr     Cr     0.16511041185087     0.07801458653334     0.14688943567502
