data_stdin
_audit_creation_method 'critic2'
_cell_length_a        13.3071203232
_cell_length_b        13.3071203232
_cell_length_c        30.0000000000
_cell_angle_alpha        90.0000
_cell_angle_beta        90.0000
_cell_angle_gamma       120.0000
_cell_volume          4600.659099
_space_group_crystal_system triclinic
_space_group_IT_number 1
_space_group_name_H-M_alt 'P1'
_space_group_name_Hall 'P 1'
loop_
_space_group_symop_operation_xyz
  'x,y,z'
loop_
_atom_site_label
_atom_site_type_symbol
_atom_site_fract_x
_atom_site_fract_y
_atom_site_fract_z
Se     Se     0.06493495318203     0.12594609420396     0.95201253678733
Se     Se     0.06438100984021     0.37545355919413     0.95165840536222
Se     Se     0.06446979767908     0.62499493700214     0.95159614106136
Se     Se     0.06481619219272     0.87499313382598     0.95180864196308
Se     Se     0.31596533150560     0.12565707842379     0.95168165354910
Se     Se     0.31536062900222     0.37555063588101     0.95160672879458
Se     Se     0.31474490990744     0.62503465600677     0.95183272110334
Se     Se     0.31479596427259     0.87528843347045     0.95174277447276
Se     Se     0.56471261294151     0.12537488161566     0.95173770071191
Se     Se     0.56587670564016     0.37548328414986     0.95099010160713
Se     Se     0.56474175628676     0.62479138480683     0.95173997733737
Se     Se     0.56433800740450     0.87514723143711     0.95193522144233
Se     Se     0.81350738545392     0.12545330104867     0.95188617669103
Se     Se     0.81478275034141     0.37570674173506     0.95107556861349
Se     Se     0.81464212701017     0.62479890242887     0.95152863560476
Se     Se     0.81407665093727     0.87495530179810     0.95195001470182
Se     Se     0.19911638155442     0.10373282593996     0.05932165450726
Se     Se     0.19924865770691     0.39500255575169     0.05886152181799
Se     Se     0.18476609192964     0.62412924838934     0.05937870291189
Se     Se     0.18429443606393     0.85869742343357     0.05952854386806
Se     Se     0.44476708176367     0.12107857586395     0.06526551498659
Se     Se     0.45324411303507     0.38201941174036     0.05776202053815
Se     Se     0.44175076544642     0.62458791076994     0.06001935261137
Se     Se     0.43200633464472     0.86353507909319     0.05981583929337
Se     Se     0.67926614765003     0.12029342406952     0.06492179838397
Se     Se     0.69256295115026     0.37961301789655     0.05792182174786
Se     Se     0.69067245228407     0.62079907021619     0.05873054070495
Se     Se     0.67856263472865     0.85834176113861     0.06062287686277
Se     Se     0.91034767167893     0.10592894307398     0.05948282858021
Se     Se     0.93235932163799     0.38088153586750     0.05738989242448
Se     Se     0.93649401465366     0.61990743875482     0.05859915508412
Se     Se     0.93184893684473     0.85378140240439     0.05857093116808
Se     Se     0.10548909114042     0.20470404123640     0.14857186889824
Se     Se     0.10644894694805     0.46014018775611     0.16511732058600
Se     Se     0.10376254172069     0.70304153645224     0.17031986125411
Se     Se     0.10716536207049     0.94916965380664     0.16642193983270
Se     Se     0.35960237437205     0.20361527028634     0.16150555947727
Se     Se     0.35930109035143     0.46321144748834     0.16487316513403
Se     Se     0.35392115302669     0.70615334672382     0.17111944643182
Se     Se     0.35297806581136     0.94746435998470     0.17104232064363
Se     Se     0.60466580352841     0.20494447108151     0.16332817902939
Se     Se     0.61033200704609     0.46247244342052     0.16915726742374
Se     Se     0.60728852143207     0.70762493349505     0.16844260309696
Se     Se     0.59825845020681     0.94765567342622     0.17087826663403
Se     Se     0.84754133917063     0.20267237724552     0.16117005188732
Se     Se     0.85679561761009     0.46086722446414     0.16926489941760
Se     Se     0.85665554244197     0.70461665081633     0.16997357198773
Se     Se     0.85253846276749     0.95293853860359     0.16365445841373
Se     Se     0.14730394411899     0.04130274440243     0.84640209754777
Se     Se     0.14757587627739     0.29125395802928     0.84643145266857
Se     Se     0.14823781143374     0.54173086313380     0.84600560490578
Se     Se     0.14805670549041     0.79188275932382     0.84617708974664
Se     Se     0.39757187305272     0.04105367762256     0.84610097568026
Se     Se     0.39788490711638     0.29157691126466     0.84600798022782
Se     Se     0.39792234346812     0.54176346278109     0.84610178980527
Se     Se     0.39803309570319     0.79164789038303     0.84635022506079
Se     Se     0.64762356853558     0.04108687088943     0.84612791764968
Se     Se     0.64784855606824     0.29174316549990     0.84556354212058
Se     Se     0.64796970236566     0.54211473581694     0.84578628352606
Se     Se     0.64801725062022     0.79173673842278     0.84636498573099
Se     Se     0.89787189374598     0.04168495111650     0.84657033345405
Se     Se     0.89776064865147     0.29146774040066     0.84606512964169
Se     Se     0.89828707380134     0.54214530244870     0.84567743582155
Se     Se     0.89811201861335     0.79209713189935     0.84636078437854
V      V      0.98087287712677     0.95823363319650     0.89973578812678
V      V      0.98021409950390     0.20832302764108     0.89944079097601
V      V      0.98122335387037     0.45861741765892     0.89882357671999
V      V      0.98105732417700     0.70809333172217     0.89908621735208
V      V      0.23110578433667     0.95862571969485     0.89928570857893
V      V      0.23175815464695     0.20823380561454     0.89927569180947
V      V      0.23119103282782     0.45828516931411     0.89915102346048
V      V      0.23108544850861     0.70812997044350     0.89924576821499
V      V      0.48135118519635     0.95864153530559     0.89924376770264
V      V      0.48180906365063     0.20814092907743     0.89873198591301
V      V      0.48156566122307     0.45847477971124     0.89889440780010
V      V      0.48117392895724     0.70807816703546     0.89935586016799
V      V      0.73115018623246     0.95860974622335     0.89946401512419
V      V      0.73026517596563     0.20820044218212     0.89881418368592
V      V      0.73180382359140     0.45903724393292     0.89854923400032
V      V      0.73112028621425     0.70804291192537     0.89921754311708
V      V      0.00854875689096     0.99899380626937     0.11270276857754
V      V      0.00605406214144     0.31046724914992     0.11254311717871
V      V      0.01981402917986     0.54942301301402     0.11402773092550
V      V      0.01768809276548     0.77230300414360     0.11467079021381
V      V      0.27460339391568     0.01126436219096     0.11268523942420
V      V      0.31052332073258     0.31272637235670     0.11339095699613
V      V      0.28143979923042     0.56430739582200     0.11285716970610
V      V      0.26637765498330     0.78102703194108     0.11488824513868
V      V      0.50598428526689     0.01203963755383     0.11475950534786
V      V      0.54272063005902     0.31225456131040     0.11386251431699
V      V      0.53664259852757     0.55223502259456     0.11390215492349
V      V      0.51156599821792     0.78224339381761     0.11459643750528
V      V      0.73776921349492     0.01158349430775     0.11228644707843
V      V      0.77378564574725     0.31110013195646     0.11375532573387
V      V      0.77627780762543     0.54540323862442     0.11471808507234
V      V      0.76908756749690     0.77294927492783     0.11476913585599
Cr     Cr     0.10318451312025     0.20137093816526     0.07097145121589
