data_stdin
_audit_creation_method 'critic2'
_cell_length_a        13.3071203232
_cell_length_b        13.3071203232
_cell_length_c        30.0000000000
_cell_angle_alpha        90.0000
_cell_angle_beta        90.0000
_cell_angle_gamma       120.0000
_cell_volume          4600.659099
_space_group_crystal_system triclinic
_space_group_IT_number 1
_space_group_name_H-M_alt 'P1'
_space_group_name_Hall 'P 1'
loop_
_space_group_symop_operation_xyz
  'x,y,z'
loop_
_atom_site_label
_atom_site_type_symbol
_atom_site_fract_x
_atom_site_fract_y
_atom_site_fract_z
Se     Se     0.07366795071406     0.16517830703359     0.93854815180244
Se     Se     0.07405273492415     0.41575034079594     0.93782493034592
Se     Se     0.07349590280160     0.66456934599116     0.93772749440074
Se     Se     0.07356692967154     0.91530288930005     0.93855683994909
Se     Se     0.32313696471894     0.16494793348546     0.93861823645812
Se     Se     0.32361253684940     0.41499747474403     0.93837490042934
Se     Se     0.32409325481152     0.66568426412888     0.93754773464425
Se     Se     0.32360210589299     0.91494207188727     0.93825791463532
Se     Se     0.57334521868003     0.16463804378901     0.93781699825371
Se     Se     0.57322853102930     0.41481108597189     0.93828973230400
Se     Se     0.57374306431527     0.66480423889966     0.93827994397131
Se     Se     0.57338136365243     0.91459113368808     0.93768892408298
Se     Se     0.82351698748219     0.16481698995435     0.93798428540107
Se     Se     0.82337416978338     0.41459952783120     0.93732481551444
Se     Se     0.82321781619914     0.66466444699846     0.93832961207943
Se     Se     0.82366102417885     0.91517062009212     0.93853987922406
Se     Se     0.17023144145031     0.08368815753231     0.05627877984644
Se     Se     0.16838121364730     0.33850177123161     0.04296063222262
Se     Se     0.17312135519485     0.58557921766772     0.03825805862242
Se     Se     0.16847133529665     0.82714861450517     0.04243757664672
Se     Se     0.42496889581237     0.08371027530956     0.04373446678678
Se     Se     0.42797115690051     0.33917032186579     0.04619494119970
Se     Se     0.41890795664420     0.58784919365308     0.03870567540981
Se     Se     0.41943391892189     0.83124076864594     0.03827600350646
Se     Se     0.66623006552463     0.07977238652602     0.03918346276324
Se     Se     0.67623099382065     0.33131941946291     0.03757578620752
Se     Se     0.67160190970080     0.58383661679997     0.04514712540100
Se     Se     0.66353681626067     0.83384071137659     0.03894991774205
Se     Se     0.91563949609510     0.08765042321216     0.04399269507889
Se     Se     0.91968927900460     0.33603592220759     0.03851598814385
Se     Se     0.92261561974926     0.57737180711773     0.03735209692513
Se     Se     0.91417009070543     0.82605322363155     0.04610798667346
Se     Se     0.07654953723035     0.17955993436550     0.14884213665061
Se     Se     0.09082578531265     0.42464869417826     0.14925307897752
Se     Se     0.09135295667248     0.66044299735158     0.14876358409529
Se     Se     0.07500940841493     0.89121333295799     0.14796600200898
Se     Se     0.36375362692951     0.17885878208483     0.14846454869168
Se     Se     0.34334022810200     0.43208099894571     0.15040416671686
Se     Se     0.33984367051016     0.66789833961072     0.15012598262867
Se     Se     0.34401430323418     0.90874153099683     0.15017182170560
Se     Se     0.59430617515873     0.16202423184505     0.14782376414870
Se     Se     0.59741399534636     0.42518453791566     0.14337591372529
Se     Se     0.58358585016272     0.67115071953704     0.15032283281155
Se     Se     0.58391582460573     0.91238419555442     0.15019839289319
Se     Se     0.83314071778861     0.16473207605711     0.14761579154772
Se     Se     0.84235391009364     0.41274703946281     0.14739795137353
Se     Se     0.83089528312606     0.65902108323732     0.14225246514069
Se     Se     0.82236861400234     0.91170954485260     0.15050253847985
Se     Se     0.15666645593938     0.08169037317886     0.83296066136285
Se     Se     0.15700015970033     0.33192531452181     0.83256821341723
Se     Se     0.15717814349827     0.58201108347626     0.83253146694913
Se     Se     0.15630350184876     0.83219976336361     0.83262388389992
Se     Se     0.40659647854086     0.08201290384680     0.83258837508881
Se     Se     0.40654601263917     0.33178631060651     0.83271067422960
Se     Se     0.40705867038252     0.58190649365254     0.83254358040541
Se     Se     0.40701916813505     0.83191677660551     0.83252439342937
Se     Se     0.65702080095970     0.08188760063645     0.83252875271947
Se     Se     0.65646026817964     0.33211960473846     0.83258442133699
Se     Se     0.65656873809389     0.58204870190546     0.83263933472630
Se     Se     0.65720794057302     0.83193445684035     0.83259270746323
Se     Se     0.90707711377905     0.08201939466734     0.83258727261193
Se     Se     0.90703164777074     0.33189996757773     0.83252542513036
Se     Se     0.90643583669686     0.58224298618365     0.83255071315054
Se     Se     0.90670207751359     0.83194438908288     0.83284307453832
V      V      0.98982875358143     0.99854329382591     0.88586419079397
V      V      0.99070643802463     0.24849557426084     0.88572120282283
V      V      0.99004190516005     0.49854338401576     0.88528047351803
V      V      0.98987928813224     0.74846835745312     0.88589718517483
V      V      0.24047592270760     0.99836033513968     0.88579467449082
V      V      0.24007830537651     0.24858417418461     0.88575624969360
V      V      0.24066127040298     0.49839568924351     0.88560717346940
V      V      0.23999281566580     0.74910687592324     0.88544923329145
V      V      0.49010783850909     0.99855152671342     0.88545047559164
V      V      0.48973417709220     0.24840248327497     0.88574380389838
V      V      0.49004091047104     0.49852953244117     0.88580065685733
V      V      0.49056489488486     0.74811981628254     0.88555874875942
V      V      0.74049319223969     0.99832163364102     0.88567583317603
V      V      0.74001665622101     0.24841508118720     0.88544615258253
V      V      0.73953675197574     0.49845047907414     0.88561596136033
V      V      0.74036813317405     0.74867605755839     0.88589705298183
V      V      0.96490429662983     0.98426154881807     0.09411710055966
V      V      0.99551381210550     0.27020487082080     0.09512274438102
V      V      0.01285897588247     0.50248330155411     0.09304832134967
V      V      0.99905601035761     0.71937681516856     0.09474663286326
V      V      0.27136632593411     0.97877477135461     0.09422131799035
V      V      0.27005965907128     0.28916973273159     0.09447649464278
V      V      0.25693393709835     0.51513239741120     0.09380870097700
V      V      0.26183439525848     0.74280850484717     0.09364834007403
V      V      0.50488875982298     0.98461072320382     0.09360007725226
V      V      0.53545884192238     0.25803892900045     0.09566286707563
V      V      0.50214286023831     0.52107394134530     0.09379288512481
V      V      0.49758273694938     0.75050199611924     0.09350871765789
V      V      0.73620557454365     0.99456444068817     0.09409422588069
V      V      0.75409905620247     0.24350741156153     0.09311270653729
V      V      0.76776763441504     0.48549703261252     0.09285017317434
V      V      0.73343340067637     0.75449575758131     0.09394329907989
Cr     Cr     0.17216013603176     0.08335182578481     0.13381863905818
