data_stdin
_audit_creation_method 'critic2'
_cell_length_a        13.3071203232
_cell_length_b        13.3071203232
_cell_length_c        30.0000000000
_cell_angle_alpha        90.0000
_cell_angle_beta        90.0000
_cell_angle_gamma       120.0000
_cell_volume          4600.659099
_space_group_crystal_system triclinic
_space_group_IT_number 1
_space_group_name_H-M_alt 'P1'
_space_group_name_Hall 'P 1'
loop_
_space_group_symop_operation_xyz
  'x,y,z'
loop_
_atom_site_label
_atom_site_type_symbol
_atom_site_fract_x
_atom_site_fract_y
_atom_site_fract_z
Se     Se     0.08106095247423     0.16863322477347     0.94524286847968
Se     Se     0.08075398222888     0.41825184662211     0.94527441420733
Se     Se     0.08081145803198     0.66827989368293     0.94541227924950
Se     Se     0.08093852101686     0.91861224773732     0.94545173507243
Se     Se     0.33164205805296     0.16905485852017     0.94511443806048
Se     Se     0.33083027095202     0.41830154697352     0.94542022326978
Se     Se     0.33097388574979     0.66861407905173     0.94549427918957
Se     Se     0.33151665551391     0.91903518276010     0.94530897388370
Se     Se     0.58150049043849     0.16913318761885     0.94502645527383
Se     Se     0.58103861996928     0.41846621505877     0.94531236173500
Se     Se     0.58088687110825     0.66841345288084     0.94562072365423
Se     Se     0.58143812918069     0.91900910473292     0.94526214157921
Se     Se     0.83089434346378     0.16905805987269     0.94470752742548
Se     Se     0.83084861088580     0.41832106290089     0.94520326955019
Se     Se     0.83097787657843     0.66881239012653     0.94573907021063
Se     Se     0.83105556270159     0.91852178556514     0.94534893637850
Se     Se     0.19711566955071     0.08439266529835     0.04853472380128
Se     Se     0.16933616908510     0.33291464015088     0.04854557662433
Se     Se     0.16915860232570     0.58137848692666     0.04837652981506
Se     Se     0.17584428612009     0.82938418683028     0.04950757236123
Se     Se     0.42930153823813     0.08512730768875     0.04949005208480
Se     Se     0.42824812340677     0.33867161185589     0.04996804456035
Se     Se     0.41806605278139     0.58175654529434     0.04909297030871
Se     Se     0.41962504887592     0.82907369504433     0.04802727293942
Se     Se     0.66608474449772     0.08633718267370     0.04865418074248
Se     Se     0.67366703843221     0.33828485541666     0.04989827515722
Se     Se     0.67388722744663     0.58821209969727     0.05351793897733
Se     Se     0.66338910545424     0.82984843787118     0.04987528201490
Se     Se     0.89706398924384     0.08926279097235     0.04502464223831
Se     Se     0.91718035027277     0.33766343190755     0.04852286911861
Se     Se     0.92365255717493     0.58682670595096     0.05215313319219
Se     Se     0.92430201758664     0.84120068969771     0.06127658554478
Se     Se     0.07553624830930     0.14388751492454     0.14604753263679
Se     Se     0.08580867999717     0.41164576936759     0.15686860866958
Se     Se     0.09481663050157     0.65853488059094     0.15940226191962
Se     Se     0.11771563043947     0.90675180620707     0.16441234891030
Se     Se     0.33662005011447     0.16486433433610     0.15177509466686
Se     Se     0.33489346606624     0.41398268987261     0.15654285630859
Se     Se     0.33412228643029     0.65934692735818     0.15778452592029
Se     Se     0.34829757707737     0.91033783822786     0.15797102472994
Se     Se     0.58837672755993     0.16518484546079     0.15675699786622
Se     Se     0.58806890385837     0.41847597124016     0.15626833760319
Se     Se     0.57244427215773     0.65966215955691     0.15993232725859
Se     Se     0.57599089876517     0.91208434701299     0.15747119179910
Se     Se     0.83763135510092     0.16682291832816     0.15467042904842
Se     Se     0.83970575016346     0.41628270766757     0.15778859210966
Se     Se     0.84396582027626     0.67960894686693     0.15389209157790
Se     Se     0.79598352426488     0.90492010293174     0.16691564087213
Se     Se     0.16425144651321     0.08549309097278     0.83989187882135
Se     Se     0.16437583528041     0.33566632983069     0.83984582380147
Se     Se     0.16420436118854     0.58547803633558     0.84017091647912
Se     Se     0.16383820462265     0.83489925905149     0.84012887878803
Se     Se     0.41388975314187     0.08517732390737     0.83964110852705
Se     Se     0.41435718314183     0.33564800098895     0.83983203404113
Se     Se     0.41430782027540     0.58551534957126     0.84030814941870
Se     Se     0.41383630759502     0.83489030392658     0.84013717029935
Se     Se     0.66382753440406     0.08499436876700     0.83953704971050
Se     Se     0.66444485850443     0.33592363506875     0.83947180659106
Se     Se     0.66388098132143     0.58510064837330     0.84008082840497
Se     Se     0.66382103175538     0.83486664793791     0.84013031507634
Se     Se     0.91390667142964     0.08508855328165     0.83962092017605
Se     Se     0.91441436197356     0.33560732806569     0.83935204843514
Se     Se     0.91397611425361     0.58525499151923     0.84000765106912
Se     Se     0.91383254595191     0.83488024976550     0.84013553194467
V      V      0.99767522051486     0.00231005515502     0.89277842524899
V      V      0.99737190478542     0.25194160574307     0.89259296586623
V      V      0.99720627176986     0.50137455553897     0.89285492972112
V      V      0.99748924855039     0.75135016054279     0.89301328973943
V      V      0.24747501673802     0.00194373514011     0.89295954405255
V      V      0.24773192637039     0.25210826893005     0.89283227395861
V      V      0.24745630946826     0.50186656086918     0.89304615313317
V      V      0.24762041457662     0.75203888195116     0.89320635576971
V      V      0.49809339604459     0.00269080408735     0.89271027012492
V      V      0.49807452190656     0.25219178088411     0.89254040197561
V      V      0.49739515965686     0.50161191749873     0.89311381420724
V      V      0.49770170555838     0.75214494107438     0.89322961264396
V      V      0.74776384408386     0.00194604225722     0.89278170499329
V      V      0.74754546282720     0.25246649702659     0.89228730303113
V      V      0.74767066033495     0.50219566575824     0.89302070976881
V      V      0.74714190781439     0.75128651399315     0.89300679392768
V      V      0.96137716306745     0.91847874211947     0.13460255794908
V      V      0.00001038642816     0.26305571498479     0.10066449819409
V      V      0.00456627977535     0.49856902379369     0.10343264149520
V      V      0.02798374871067     0.74386234688540     0.10623099373860
V      V      0.27591748234321     0.98584467227771     0.10327067293381
V      V      0.26967624719399     0.26794547921124     0.10086550935618
V      V      0.24861738834810     0.49999441014240     0.10129903139786
V      V      0.26069775265056     0.74153738368229     0.10250808095365
V      V      0.50780266294080     0.99491290871106     0.10163895756486
V      V      0.51358231781315     0.25272220757237     0.10403556596361
V      V      0.50330661625432     0.50566951534792     0.10304654631216
V      V      0.49149260499024     0.74329582754083     0.10255103968300
V      V      0.73636158537314     0.99540665858781     0.10364364281008
V      V      0.74951065976953     0.24991008664697     0.10347812575055
V      V      0.75662645094499     0.49440210181981     0.10553211532459
V      V      0.72478887792479     0.74747753661865     0.10627305870080
Cr     Cr     0.02665023973479     0.04971604813935     0.07739037408455
