data_stdin
_audit_creation_method 'critic2'
_audit_creation_date 2023-4-24
_chemical_formula_sum 'Cr Se64 V32'
_cell_formula_units_Z 1
_cell_length_a        13.2987005764
_cell_length_b        13.2987005764
_cell_length_c        30.0000000000
_cell_angle_alpha        90.0000
_cell_angle_beta        90.0000
_cell_angle_gamma       120.0000
_cell_volume          4594.839038
_space_group_crystal_system triclinic
_space_group_IT_number 1
_space_group_name_H-M_alt 'P1'
_space_group_name_Hall 'P 1'
loop_
_symmetry_equiv_pos_site_id
_symmetry_equiv_pos_as_xyz
 1 'x,y,z'
loop_
_atom_site_label
_atom_site_type_symbol
_atom_site_fract_x
_atom_site_fract_y
_atom_site_fract_z
Se     Se     0.08473891263315     0.16415729105653     0.94570810479927
Se     Se     0.09197091542083     0.43089184533738     0.95516376498439
Se     Se     0.08647336491882     0.66837114826389     0.95292128812713
Se     Se     0.08017863584911     0.90705668590528     0.95204526276741
Se     Se     0.33513385833859     0.16532900342435     0.94376852453419
Se     Se     0.33772396185861     0.42462016010776     0.95427684031124
Se     Se     0.33467062152822     0.66843194153225     0.95462411161846
Se     Se     0.33104870771955     0.91082411289374     0.95245646866701
Se     Se     0.58283292489119     0.16663357039447     0.94327785160500
Se     Se     0.58706563199215     0.42397210072225     0.95077036056018
Se     Se     0.57923475161333     0.66512659048252     0.95446790259096
Se     Se     0.57897216739125     0.90889889738916     0.95384656239415
Se     Se     0.83222107407606     0.16508344893433     0.94535502006057
Se     Se     0.83718454620606     0.42643106056909     0.95107608635564
Se     Se     0.83400824531950     0.66747539422472     0.95075554835783
Se     Se     0.82710312928165     0.90559164427334     0.95421945169616
Se     Se     0.17392119173362     0.07866288389293     0.04575868739425
Se     Se     0.16879397234635     0.33311432932675     0.05464179788846
Se     Se     0.16379789725423     0.58948415138639     0.04897990796387
Se     Se     0.16717287445255     0.83372388578234     0.04920251321312
Se     Se     0.42173101329684     0.08601554873894     0.04551979481544
Se     Se     0.42201101864147     0.33006133646403     0.04613653678670
Se     Se     0.41820988266599     0.58396287051081     0.05670503636362
Se     Se     0.41403713690087     0.83709100719288     0.04917612855452
Se     Se     0.66323057636194     0.08704621393126     0.04571839756692
Se     Se     0.66622440143882     0.33384115097994     0.04539519047304
Se     Se     0.67002986012461     0.57996271874188     0.04754768632877
Se     Se     0.66596401485819     0.83038882694468     0.05622303784165
Se     Se     0.91634275518279     0.07977842983676     0.05428522841741
Se     Se     0.90892311978987     0.33913609444883     0.04489104105767
Se     Se     0.91449779402564     0.58208789030122     0.04714574552139
Se     Se     0.92100190695199     0.82718250987496     0.04795373922414
Se     Se     0.08324240056968     0.16757525764705     0.14495207291598
Se     Se     0.07951998488610     0.41672839360250     0.15539207091268
Se     Se     0.08318219655892     0.66252587317005     0.15659757542007
Se     Se     0.09152964658334     0.91191163489962     0.15466557903784
Se     Se     0.34079529440755     0.16398357455579     0.15563882491323
Se     Se     0.33056147643806     0.41363176274429     0.14594604405682
Se     Se     0.33158442724085     0.66963891270679     0.15737078696111
Se     Se     0.33878153553223     0.91895518906036     0.15647530968727
Se     Se     0.58695362572081     0.16764386095994     0.15661338341371
Se     Se     0.58758256550569     0.41156703572818     0.15633718020980
Se     Se     0.58438277442120     0.66510770673429     0.14875705931803
Se     Se     0.58258750855083     0.92091244338973     0.15688975413589
Se     Se     0.83134924856957     0.16919933311256     0.15504197848325
Se     Se     0.83269149055030     0.41298822796843     0.15664684714186
Se     Se     0.83660586814283     0.65976328879601     0.15650791224648
Se     Se     0.83674734789292     0.92047685809148     0.14536987228326
Se     Se     0.16430173886990     0.08459378492156     0.85461421999463
Se     Se     0.16966409573619     0.33874293760137     0.84495867441273
Se     Se     0.16821168662066     0.58112542856681     0.84338558342004
Se     Se     0.16454697857456     0.82410314201329     0.84345622775055
Se     Se     0.41672174824228     0.08163837826374     0.85119345278256
Se     Se     0.41843805622300     0.33924760544888     0.84308906094383
Se     Se     0.41393503080734     0.58155591036603     0.84340853239593
Se     Se     0.41329430937691     0.82479748439806     0.84366549205606
Se     Se     0.67046478100237     0.08396104276240     0.85402122934823
Se     Se     0.66953249580354     0.33895153119403     0.84261903127508
Se     Se     0.66227622938889     0.58099617616955     0.84357232803228
Se     Se     0.66014511302486     0.82399557177082     0.84436366183280
Se     Se     0.91779854709428     0.08511248182452     0.85505960194830
Se     Se     0.92156993808204     0.33803885545512     0.84462820770227
Se     Se     0.91802328055590     0.58028712885232     0.84337219981425
Se     Se     0.90952972631058     0.82116867661740     0.84534406921433
V      V      0.98136398580516     0.96555716129711     0.89943675450736
V      V      0.01609296398038     0.27905407616751     0.90021351751231
V      V      0.01082784217158     0.50945805352241     0.89865194010221
V      V      0.00168097074955     0.73586576206574     0.89814111560646
V      V      0.23763296711363     0.97265041206914     0.89850837419552
V      V      0.26787506496252     0.27954156384792     0.89898659615671
V      V      0.25576383685963     0.51054508110272     0.89944267340572
V      V      0.24921223806312     0.73825389004277     0.89884394676631
V      V      0.48761894406781     0.97326101443593     0.89918376690939
V      V      0.51166462784114     0.27517960980849     0.89733978099368
V      V      0.49854785969628     0.50965623810070     0.89890533567131
V      V      0.48934021924339     0.73742915631598     0.89931567453647
V      V      0.73450899603301     0.96758594465754     0.90031639239716
V      V      0.76170252524658     0.27922600123483     0.89777939186798
V      V      0.75489954285606     0.51192821057889     0.89730778680148
V      V      0.73296697677090     0.73464499035987     0.89947792936714
V      V      0.01972807000639     0.98450899266044     0.10056750183369
V      V      0.98496451617940     0.26326674061441     0.09980810393186
V      V      0.99007184656959     0.49875122855580     0.10139857998407
V      V      0.99975944864669     0.73460817780138     0.10184823526158
V      V      0.26799567698156     0.00181913619505     0.10051751578832
V      V      0.26643862095997     0.23317859566733     0.09966127048160
V      V      0.23933866325120     0.51774518100014     0.10221412565479
V      V      0.24658900982749     0.75763272624138     0.10268545267619
V      V      0.50232852782563     0.01114706385164     0.10109082008741
V      V      0.51145204112531     0.24800681999635     0.10069073238638
V      V      0.51340618502719     0.48576046208412     0.10080360157406
V      V      0.48937000298333     0.76363229434806     0.10264655262468
V      V      0.73311647586250     0.01182072351001     0.10100034577765
V      V      0.74499331874043     0.25471413951813     0.10058502472918
V      V      0.75165906378424     0.48903266556115     0.10118262573029
V      V      0.76361331543553     0.73528350482628     0.10147949668830
Cr     Cr     0.00047262798478     0.24289414570217     0.00000159509104
