data_stdin
_audit_creation_method 'critic2'
_audit_creation_date 2023-4-24
_chemical_formula_sum 'Cr Se64 V32'
_cell_formula_units_Z 1
_cell_length_a        13.2987005764
_cell_length_b        13.2987005764
_cell_length_c        30.0000000000
_cell_angle_alpha        90.0000
_cell_angle_beta        90.0000
_cell_angle_gamma       120.0000
_cell_volume          4594.839038
_space_group_crystal_system trigonal
_space_group_IT_number 156
_space_group_name_H-M_alt 'P3m1'
_space_group_name_Hall 'P 3 -2"'
loop_
_symmetry_equiv_pos_site_id
_symmetry_equiv_pos_as_xyz
 1 'x,y,z'
 2 '-x+y,-x,z'
 3 '-y,x-y,z'
 4 '-x+y,y,z'
 5 '-y,-x,z'
 6 'x,x-y,z'
loop_
_atom_site_label
_atom_site_type_symbol
_atom_site_fract_x
_atom_site_fract_y
_atom_site_fract_z
Se     Se     0.08621575267036     0.17243250234071     0.95192423291405
Se     Se     0.08330209272951     0.41838500062321     0.95051933786942
Se     Se     0.33617534984567     0.16808818092284     0.95164202045208
Se     Se     0.33333298600000     0.66666698500000     0.94956565713755
Se     Se     0.58335643646941     0.16671384193882     0.95006404275845
Se     Se     0.17663078947554     0.08831489623777     0.05128084598586
Se     Se     0.17076349107407     0.34152597014814     0.04779569976962
Se     Se     0.16873866720814     0.58436884910407     0.04873101553839
Se     Se     0.41905000532805     0.08187149126537     0.04990699747002
Se     Se     0.66666698500000     0.33333298600000     0.05140613172924
Se     Se     0.08360312970465     0.16720725640929     0.15240206380891
Se     Se     0.08628664857295     0.42034453038395     0.15709891105706
Se     Se     0.32670354607993     0.16335227903996     0.15179002235816
Se     Se     0.33333298600000     0.66666698500000     0.15811712530406
Se     Se     0.58298415710399     0.16596928320799     0.15407094017379
Se     Se     0.16486849385218     0.08243374842609     0.84732786736277
Se     Se     0.16525952477490     0.33051803754981     0.84641422647672
Se     Se     0.16707529204287     0.58353716152143     0.84516679329233
Se     Se     0.41635597599029     0.08331324391931     0.84513487966191
Se     Se     0.66666698500000     0.33333298600000     0.84542462369192
V      V      0.00000000000000     0.00000000000000     0.90157545404308
V      V      0.99581206200649     0.25067748859109     0.89909647999186
V      V      0.00052720556963     0.50026360278481     0.89790939471384
V      V      0.24894428339960     0.49788856679919     0.89798974603104
V      V      0.49959221899226     0.24979610949613     0.89822483841039
V      V      0.00000000000000     0.00000000000000     0.09784703956978
V      V      0.01534841305913     0.27004966360474     0.10180409985100
V      V      0.00664517517300     0.50332258758650     0.10272722784727
V      V      0.25463281877961     0.50926563755923     0.10238857043593
V      V      0.49549631982690     0.24774815991345     0.10262328863438
Cr     Cr     0.00000000000000     0.00000000000000     0.00328200522472
