data_stdin
_audit_creation_method 'critic2'
_audit_creation_date 2023-4-24
_chemical_formula_sum 'Cr Se64 V32'
_cell_formula_units_Z 1
_cell_length_a        13.2987005764
_cell_length_b        13.2987005764
_cell_length_c        30.0000000000
_cell_angle_alpha        90.0000
_cell_angle_beta        90.0000
_cell_angle_gamma       120.0000
_cell_volume          4594.839038
_space_group_crystal_system monoclinic
_space_group_IT_number 12
_space_group_name_H-M_alt 'C2/m'
_space_group_name_Hall '-C 2y'
loop_
_symmetry_equiv_pos_site_id
_symmetry_equiv_pos_as_xyz
 1 'x,y,z'
 2 '-3/4-x,-y,-z'
 3 'x-y,-y,-z'
 4 '-3/4-x+y,y,z'
loop_
_atom_site_label
_atom_site_type_symbol
_atom_site_fract_x
_atom_site_fract_y
_atom_site_fract_z
Se     Se     0.07278832709965     0.14412951420599     0.95167731373911
Se     Se     0.06840251095164     0.38992003649697     0.95122347811732
Se     Se     0.07538594699435     0.64146618849250     0.94474314342882
Se     Se     0.06970092756697     0.88940187013394     0.93180224390873
Se     Se     0.31924564761398     0.38849129622798     0.95267905853574
Se     Se     0.32295297525231     0.64506049183698     0.94214525405874
Se     Se     0.32839108997186     0.90220025970502     0.94851624248130
Se     Se     0.57582755404619     0.14682009330087     0.95140827631778
Se     Se     0.57696435574471     0.90392877248943     0.95019973831935
Se     Se     0.82021198163905     0.39042402427810     0.95026432792856
Se     Se     0.09487611633828     0.18692501037878     0.15679057655898
Se     Se     0.09057271143760     0.43938298829799     0.15020713517645
Se     Se     0.09886647037144     0.69583722453207     0.15700922810964
Se     Se     0.09494009150176     0.93988019800351     0.15747953744003
Se     Se     0.35191382669207     0.45382765438414     0.15945369711288
Se     Se     0.34749411462094     0.69458993280231     0.15872411106309
Se     Se     0.34791656250412     0.93380382696414     0.16089414254370
Se     Se     0.59365798103958     0.18112283092832     0.15968344017810
Se     Se     0.59278501229715     0.93557008559431     0.16037845844905
Se     Se     0.84503444291388     0.44006894682777     0.14975990957369
V      V      0.98371432736179     0.99956923197821     0.89417968278473
V      V      0.97778987512499     0.22358792082446     0.89687999877624
V      V      0.97859611137923     0.45661197959380     0.89627474564343
V      V      0.97177738970528     0.69355477941055     0.89503162818790
V      V      0.23560438220416     0.22120876440832     0.89649669853966
V      V      0.22727541571422     0.45025914289224     0.89805325196098
V      V      0.25538496318791     0.75422663881572     0.89300600483507
V      V      0.50117734692497     0.99058463001358     0.89557232449435
V      V      0.50063292995058     0.75126585990116     0.89644811133232
V      V      0.73407576104471     0.21815152208941     0.89661620540200
Cr     Cr     0.12500000000000     0.00000000000000     0.00000000000000
