data_stdin
_audit_creation_method 'critic2'
_audit_creation_date 2023-4-24
_chemical_formula_sum 'Cr Se64 V32'
_cell_formula_units_Z 1
_cell_length_a        13.2987005764
_cell_length_b        13.2987005764
_cell_length_c        30.0000000000
_cell_angle_alpha        90.0000
_cell_angle_beta        90.0000
_cell_angle_gamma       120.0000
_cell_volume          4594.839038
_space_group_crystal_system monoclinic
_space_group_IT_number 8
_space_group_name_H-M_alt 'Cm'
_space_group_name_Hall 'C -2y'
loop_
_symmetry_equiv_pos_site_id
_symmetry_equiv_pos_as_xyz
 1 'x,y,z'
 2 '-3/4-y,-3/4-x,z'
loop_
_atom_site_label
_atom_site_type_symbol
_atom_site_fract_x
_atom_site_fract_y
_atom_site_fract_z
Se     Se     0.08570725866461     0.16429274933540     0.94709556753946
Se     Se     0.08905758527188     0.42708268315242     0.95132944944420
Se     Se     0.08339652908474     0.66951387834792     0.94941296923167
Se     Se     0.08196051701292     0.91234069254801     0.94939234522496
Se     Se     0.34108990609738     0.42217614351545     0.95366269006136
Se     Se     0.33744766374435     0.66936159590401     0.95242759578823
Se     Se     0.33365531424909     0.91634471575091     0.94911447619498
Se     Se     0.58468410483462     0.41911675157600     0.95075961716508
Se     Se     0.58327057597024     0.66672942402976     0.95344181977530
Se     Se     0.82954446553678     0.42045553446322     0.95117028872344
Se     Se     0.17295672094880     0.07704326405121     0.04633567251410
Se     Se     0.16961373502946     0.33323984605556     0.05462831536971
Se     Se     0.16397801976719     0.58854366203830     0.04746091173600
Se     Se     0.16675910843893     0.83142029204423     0.04756086540677
Se     Se     0.42222048850039     0.32872729158468     0.04725413138610
Se     Se     0.41910040948956     0.58368022915420     0.05630046167136
Se     Se     0.41341434683029     0.83658562316971     0.04891770131244
Se     Se     0.66658741456911     0.33417205164280     0.04672297835167
Se     Se     0.67050637747067     0.57949356252932     0.04755273105823
Se     Se     0.90956340769524     0.34043653230476     0.04519301576202
Se     Se     0.08291534079206     0.16708466720794     0.14528361936139
Se     Se     0.08053140479836     0.41762569497283     0.15529050764474
Se     Se     0.08344752221846     0.66303128261347     0.15702678556391
Se     Se     0.08894553372398     0.91064877573984     0.15561943952607
Se     Se     0.33058334165015     0.41359346257325     0.14570901419699
Se     Se     0.33088771425874     0.66831628687655     0.15717647386401
Se     Se     0.33543130435212     0.91456872564788     0.15691159102838
Se     Se     0.58900542677797     0.41200152552217     0.15642396927630
Se     Se     0.58476229685633     0.66523770314367     0.14837166036490
Se     Se     0.83522594327592     0.41477405672408     0.15673711100825
Se     Se     0.16256648528920     0.08743349971081     0.85026983226285
Se     Se     0.16592851237022     0.33438649753622     0.84968165952071
Se     Se     0.16584451644448     0.57847611726037     0.84802898519758
Se     Se     0.16676374561204     0.83108917347447     0.84626827427964
Se     Se     0.42138951547240     0.33836064368565     0.84362538223725
Se     Se     0.41983954547828     0.58523585374576     0.84394547271017
Se     Se     0.41844816305891     0.83155180694109     0.84502734382681
Se     Se     0.66737894214673     0.33544393692063     0.84336100667792
Se     Se     0.66539052396985     0.58460941603014     0.84265216340874
Se     Se     0.91588956454458     0.33411037545542     0.84664600260655
V      V      0.98052494892396     0.97565423497162     0.89916629230417
V      V      0.99297819694741     0.25702180305259     0.90323952063270
V      V      0.98873679342776     0.50269883038950     0.89886360071808
V      V      0.99221156766495     0.74344861829439     0.89741332459106
V      V      0.25029274705048     0.99970725294952     0.89661882273994
V      V      0.26809560141599     0.50706367721487     0.89935765223054
V      V      0.25512948037729     0.74608648015081     0.89808177624242
V      V      0.50756681020060     0.50923956668862     0.89861773100314
V      V      0.50246619651432     0.74753380348568     0.89874611357148
V      V      0.74466132729214     0.50533867270786     0.89752744552615
V      V      0.01851744897126     0.98402482694837     0.10043112544056
V      V      0.98595801480857     0.26404198519143     0.09987803453463
V      V      0.99374620699586     0.50304146686130     0.10127781658746
V      V      0.00316189407236     0.73810937995756     0.10152896344843
V      V      0.25837907912148     0.99162092087852     0.10120427574324
V      V      0.23904903718619     0.51731393894249     0.10165951007182
V      V      0.24292201810745     0.75250347374229     0.10223502279742
V      V      0.51452383034834     0.48545193256938     0.10112150981941
V      V      0.48771543138771     0.76228456861229     0.10244451402947
V      V      0.75677476143942     0.49322523856058     0.10142762144665
Cr     Cr     0.00311969566543     0.24688030833457     0.00054580145406
