data_stdin
_audit_creation_method 'critic2'
_audit_creation_date 2023-4-24
_chemical_formula_sum 'Cr Se64 V32'
_cell_formula_units_Z 1
_cell_length_a        13.2987005764
_cell_length_b        13.2987005764
_cell_length_c        30.0000000000
_cell_angle_alpha        90.0000
_cell_angle_beta        90.0000
_cell_angle_gamma       120.0000
_cell_volume          4594.839038
_space_group_crystal_system trigonal
_space_group_IT_number 156
_space_group_name_H-M_alt 'P3m1'
_space_group_name_Hall 'P 3 -2"'
loop_
_symmetry_equiv_pos_site_id
_symmetry_equiv_pos_as_xyz
 1 'x,y,z'
 2 '-x+y,-3/4-x,z'
 3 '-3/4-y,-3/4+x-y,z'
 4 '-x+y,y,z'
 5 '-3/4-y,-3/4-x,z'
 6 'x,-3/4+x-y,z'
loop_
_atom_site_label
_atom_site_type_symbol
_atom_site_fract_x
_atom_site_fract_y
_atom_site_fract_z
Se     Se     0.08333333600000     0.16666667200000     0.93987454299476
Se     Se     0.91420199988936     0.82840393877871     0.05029301635998
Se     Se     0.82876259271899     0.91075366190474     0.94901612783047
Se     Se     0.17634826304226     0.07365174495774     0.05015734790516
Se     Se     0.91676462777279     0.58338234338640     0.05055732821491
Se     Se     0.58382520966869     0.66617485033132     0.94962149180970
Se     Se     0.33368792979130     0.91631207020870     0.94942547603979
Se     Se     0.66005322525059     0.08040934549997     0.05102514755772
Se     Se     0.83165067881342     0.66330135862684     0.94925211984039
Se     Se     0.41666668700000     0.83333331300000     0.05194012094164
Se     Se     0.08333333600000     0.16666667200000     0.15137168357550
Se     Se     0.91284984711216     0.82569963322430     0.84145383655928
Se     Se     0.83404050707763     0.91871416044415     0.15376200800273
Se     Se     0.16564671225591     0.08435329574409     0.84776016646688
Se     Se     0.91596867927601     0.58298436913800     0.84104078227232
Se     Se     0.58376284419717     0.66623721580283     0.15710691294682
Se     Se     0.33519906655334     0.91480093344666     0.16077418065311
Se     Se     0.66592452728626     0.08344088294103     0.84420083367133
Se     Se     0.83363455062226     0.66726910224452     0.15546694162753
Se     Se     0.41666668700000     0.83333331300000     0.84394906195158
V      V      0.98576862534222     0.97153725068446     0.89708312514604
V      V      0.99848441298978     0.99696882597955     0.09953670668096
V      V      0.00254685698116     0.74816372395212     0.10340954611700
V      V      0.74429834936732     0.73934710021182     0.89623167746113
V      V      0.25165125930054     0.99834874069946     0.89622816363688
V      V      0.72559621097745     0.98779810548872     0.10473697335281
V      V      0.49970379258572     0.99940758517144     0.89673129036620
V      V      0.49799142305146     0.99598284610292     0.10518342603439
V      V      0.75000000000000     0.50000000000000     0.10311906168199
V      V      0.75000000000000     0.50000000000000     0.89581061110279
Cr     Cr     0.08333333600000     0.16666667200000     0.02083501616993
